*Heading
** Job name: Job-1 Model name: Model-1
** Generated by: Abaqus/CAE 6.14-2
*Preprint, echo=NO, model=NO, history=NO, contact=NO
**
** PARTS
**
*Part, name=Draglink
*Node
      1, -0.0777519569, 0.00916008651,           0.
      2, -0.0777519569, 0.00916008651, 0.0299999993
      3, 0.0806517377, 0.00552634336, 0.0299999993
      4, 0.0806517377, 0.00552634336,           0.
      5, -0.100000001, -0.0250000004, 0.0299999993
      6, -0.100000001, 0.0250000004, 0.0299999993
      7, -0.100000001, 0.0250000004,           0.
      8, -0.100000001, -0.0250000004,           0.
      9,  0.100000001, 0.0250000004,           0.
     10,  0.100000001, -0.0250000004,           0.
     11,  0.100000001, 0.0250000004, 0.0299999993
     12,  0.100000001, -0.0250000004, 0.0299999993
     13, -0.0376294516, -0.0250000004, 0.0299999993
     14, -0.0376294516, 0.0250000004, 0.0299999993
     15, 0.0376294516, -0.0250000004, 0.0299999993
     16, 0.0376294516, 0.0250000004, 0.0299999993
     17, -0.0326368362, 0.0253984276,  0.034728419
     18, -0.0326368362, -0.0216653459,  0.034728419
     19, 0.0326368362, -0.0216653459,  0.034728419
     20, 0.0149999997,      0.01425,  0.230000004
** ... 19780 like lines cut
*Element, type=C3D10
    1,  1490,  1491,  1492,  1493,  2880,  2879,  2878,  2882,  2881,  2883
    2,  1490,  1494,  1495,  1496,  2886,  2885,  2884,  2888,  2887,  2889
    3,  1490,  1492,  1497,  1493,  2878,  2891,  2890,  2882,  2883,  2892
    4,  1490,  1498,  1499,  1493,  2895,  2894,  2893,  2882,  2896,  2897
    5,  1490,  1497,  1500,  1495,  2890,  2899,  2898,  2884,  2900,  2901
    6,  1501,  1502,  1503,  1504,  2904,  2903,  2902,  2906,  2905,  2907
    7,  1505,  1502,  1506,  1507,  2910,  2909,  2908,  2912,  2911,  2913
    8,  1504,  1502,  1503,  1507,  2905,  2903,  2907,  2914,  2911,  2915
    9,  1504,  1507,  1508,  1506,  2914,  2917,  2916,  2918,  2913,  2919
   10,  1509,  1510,  1511,  1512,  2922,  2921,  2920,  2924,  2923,  2925
   11,  1509,  1513,  1514,  1515,  2928,  2927,  2926,  2930,  2929,  2931
   12,  1516,  1509,  1514,  1515,  2933,  2926,  2932,  2934,  2930,  2931
   13,  1509,  1515,  1516,  1517,  2930,  2934,  2933,  2936,  2935,  2937
   14,  1509,  1518,  1510,  1512,  2939,  2938,  2922,  2924,  2940,  2923
   15,  1518,  1519,  1520,  1521,  2943,  2942,  2941,  2945,  2944,  2946
   16,  1519,  1509,  1521,  1518,  2948,  2947,  2944,  2943,  2939,  2945
   17,  1509,  1514,  1513,  1505,  2926,  2927,  2928,  2950,  2949,  2951
   18,  1509,  1519,  1514,  1505,  2948,  2952,  2926,  2950,  2953,  2949
   19,  1408,  1411,  1522,  1523,  2956,  2955,  2954,  2958,  2957,  2959
   20,  1524,  1525,  1526,  1527,  2962,  2961,  2960,  2964,  2963,  2965
** ... 12531 like lines cut
*Nset, nset=Set-1, generate
     1,  19800,      1
*Elset, elset=Set-1, generate
     1,  12551,      1
** Section: Section-1
*Solid Section, elset=Set-1, material=Material-1
,
*End Part
**  
**
** ASSEMBLY
**
*Assembly, name=Assembly
**  
*Instance, name=Draglink-1, part=Draglink
*End Instance
**  
*Node
      1,           0., -0.00499999989,         0.25
*Nset, nset=Set-1, instance=Draglink-1
     1,     4,     7,     8,     9,    10,    31,    32,    33,    34,    35,    36,    37,    38,    39,    58
    59,    60,    61,    62,    63,    64,    65,    66,    76,    77,    78,    79,    80,    81,    85,    86
    87,    88,    89,    90,    91,    92,    93,    94,    95,    96,    97,    98,    99,   100,   101,   102
   103,   104,   105,   106,   107,   108,   109,   110,   111,   112,   113,   114,   115,   116,   117,   118
   119,   120,   121,   122,   123,   124,   125,   126,   127,   128,   129,   130,   131,   132,   133,   134
   135,   136,   137,   138,   139,   140,   471,   472,   473,   474,   475,   476,   477,   478,   479,   480
   481,   482,   483,   484,   485,   486,   487,   488,   489,   490,   491,   492,   493,   494,   495,   496
   497,   498,   499,   500,   501,   502,   503,   504,   505,   506,   507,   508,   509,   510,   511,   512
   513,   514,   515,   516,   517,   518,   519,   520,   521,   522,   523,   524,   525,   526,   527,   528
   529,   530,   531,   532,   533,   534,   535,   536,   537,   538,   539,   540,   541,   542,   543,   544
   545,   546,   547,   548,   549,   550,   551,   552,   553,   554,   555,   556,   557,   558,   559,   560
   561,   562,   563,   564,   565,   566,   567,   568,   569,   570,   571,   572,   573,   574,   575,   576
   577,   578,   579,   580,   581,   582,   583,   584,   585,   586,   587,   588,   589,   590,   591,   592
   593,   594,   595,   596,   597,   598,   599,   600,   601,   602,  3396,  3398,  3400,  6591,  6598,  6599
  6762,  6769,  7534,  7698,  7742,  7769,  7787,  7802,  7806,  7844,  7884,  7900,  7909,  7914,  7926,  7932
  7938,  7946,  7947,  7960,  7983,  7985,  7987,  8014,  8016,  8018,  8047,  8059,  8061,  8063,  8189,  8191
  8193,  8214,  8227,  8238,  8239,  8240,  8245,  8247,  8249,  8270,  8272,  8273,  8274,  8297,  8299,  8301
  8303,  8304,  8310,  8337,  8339,  8341,  8348,  8352,  8353,  8378,  8423,  8425,  8427,  8515,  8534,  8582
  8593,  8594,  8595,  8749,  8751,  8787,  8788,  8789,  8978,  8979,  8980,  9028,  9029,  9034,  9038,  9040
  9042,  9061,  9063,  9065,  9120,  9126,  9127,  9129,  9130,  9132,  9186,  9187,  9220,  9322,  9327,  9329
** ... 30 like lines cut
*Elset, elset=Set-1, instance=Draglink-1
   125,  1085,  1592,  1603,  1610,  1620,  1658,  1673,  1675,  1683,  1684,  1691,  1692,  1702,  1704,  1720
  1763,  1822,  1833,  1899,  1915,  1920,  1925,  1944,  1945,  1965,  2008,  2051,  2055,  2059,  2115,  2193
  2210,  2289,  2335,  2342,  2360,  2375,  2385,  2396,  2403,  2411,  2417,  2439,  2517,  2543,  2601,  2613
  2630,  2633,  2662,  2674,  2675,  2676,  2697,  2703,  2705,  2723,  2725,  2731,  2741,  2743,  2746,  2748
  2774,  2778,  2807,  2811,  2815,  2817,  2823,  2828,  2829,  2835,  2839,  2852,  2853,  2860,  2861,  2864
  2872,  2882,  2888,  2895,  2910,  2922,  2926,  2956,  2957,  2961,  2972,  2977,  3012,  3034,  3035,  3038
  3046,  3048,  3050,  3058,  3068,  3071,  3080,  3081,  3082,  3083,  3089,  3098,  3100,  3109,  3111,  3129
  3137,  3144,  3147,  3149,  3153,  3157,  3169,  3172,  3181,  3183,  3191,  3192,  3197,  3198,  3202,  3214
  3218,  3229,  3234,  3241,  3242,  3251,  3262,  3274,  3277,  3284,  3289,  3296,  3307,  3308,  3315,  3317
  3321,  3325,  3330,  3334,  3335,  3339,  3348,  3349,  3354,  3356,  3361,  3363,  3364,  3369,  3385,  3387
  3388,  3397,  3406,  3409,  3410,  3412,  3415,  3425,  3436,  3441,  3446,  3450,  3453,  3459,  3463,  3466
  3472,  3478,  3481,  3487,  3488,  3493,  3496,  3500,  3511,  3514,  3518,  3520,  3522,  3525,  3527,  3537
  3542,  3559,  3564,  3566,  3567,  3573,  3588,  3592,  3599,  3601,  3608,  3613,  3616,  3618,  3622,  3624
  3628,  3632,  3635,  3644,  3654,  3656,  3666,  3669,  3671,  3683,  3694,  3698,  3704,  3707,  3709,  3723
  3726,  3743,  3744,  3760,  3820,  3840,  3957,  3959,  3962,  3963,  3964,  3965,  3978,  3988,  3998,  4001
  4008,  4021,  4057,  4058,  4105,  4108,  4110,  4230,  4233,  4287,  4299,  4311,  4314,  4318,  4328,  4329
  4333,  4339,  4345,  4358,  4364,  4373,  4386,  4390,  4391,  4393,  4398,  4402,  4433,  4437,  4472,  4484
  4583,  4585,  4590,  4665,  4683,  4684,  4689,  4697,  4698,  4718,  4721,  4727,  4731,  4740,  4802,  4824
  4827,  4963,  4967,  4994,  5066,  5103,  5114,  5116,  5129,  5141,  5159,  5165,  5216,  5217,  5223,  5232
  5249,  5252,  5261,  5266,  5271,  5284,  5320,  5322,  5367,  5381,  5386,  5387,  5401,  5631,  5637,  5937
  5960,  6198,  6535,  6591,  6594,  6664,  6808,  6982,  7283,  8468,  9271,  9346,  9347,  9882, 10152, 10254
 10491, 10530, 10558, 10651, 10720, 10724, 10727, 10820, 10821, 10846, 10923, 12035, 12083, 12176, 12267, 12269
*Nset, nset=Set-3
 1,
*Nset, nset=m_Set-2
 1,
*Elset, elset=_s_Surf-1_S4, internal, instance=Draglink-1
   236,  7690,  8441,  9806, 10420, 10480, 10490, 11391
*Elset, elset=_s_Surf-1_S2, internal, instance=Draglink-1
  1881,  9890, 10067, 10509
*Elset, elset=_s_Surf-1_S3, internal, instance=Draglink-1
  2074,  2178,  2363,  2659,  2841,  5366,  5399,  6866,  6869,  7077,  8356,  8562,  9708,  9738,  9747,  9754
  9796,  9849,  9891,  9914, 10013, 10037, 10049, 10083, 10149, 10199, 10252, 10255, 10268, 10271, 10272, 10278
 10279, 10296, 10299, 10409, 10447, 10452, 10459, 10469, 10476, 10479, 10497, 10498, 10522, 10537, 10550, 10575
 10577, 10608, 10610, 10639, 10646, 10668, 10693, 10721, 10808, 10812, 10813, 10865, 11386, 11797, 11801, 11814
*Elset, elset=_s_Surf-1_S1, internal, instance=Draglink-1
  2321,  9819, 10190, 10492
*Surface, type=ELEMENT, name=s_Surf-1
_s_Surf-1_S4, S4
_s_Surf-1_S2, S2
_s_Surf-1_S3, S3
_s_Surf-1_S1, S1
** Constraint: Constraint-1
*Coupling, constraint name=Constraint-1, ref node=m_Set-2, surface=s_Surf-1
*Kinematic
*End Assembly
** 
** MATERIALS
** 
*Material, name=Material-1
*Elastic
 2.1e+11, 0.3
** 
** BOUNDARY CONDITIONS
** 
** Name: BC-1 Type: Symmetry/Antisymmetry/Encastre
*Boundary
Set-1, ENCASTRE
** ----------------------------------------------------------------
** 
** STEP: Step-1
** 
*Step, name=Step-1, nlgeom=NO
*Static
1., 1., 1e-05, 1.
** 
** LOADS
** 
** Name: Load-1   Type: Concentrated force
*Cload
Set-3, 1, 20000.
** 
** OUTPUT REQUESTS
** 
*Restart, write, frequency=0
** 
** FIELD OUTPUT: F-Output-1
** 
*Output, field
*Node Output
U, 
*Element Output, directions=YES
EVOL, S
** 
** HISTORY OUTPUT: H-Output-1
** 
*Output, history, variable=PRESELECT
*End Step
