*Heading
** Job name: Job-1 Model name: Model-1
** Generated by: Abaqus/CAE 6.14-2
*Preprint, echo=NO, model=NO, history=NO, contact=NO
**
** PARTS
**
*Part, name=Draglink
*Node
      1, -0.0777519569, 0.00916008651,           0.
      2, -0.0777519569, 0.00916008651, 0.0299999993
      3, 0.0806517377, 0.00552634336, 0.0299999993
      4, 0.0806517377, 0.00552634336,           0.
      5, -0.100000001, -0.0250000004, 0.0299999993
      6, -0.100000001, 0.0250000004, 0.0299999993
      7, -0.100000001, 0.0250000004,           0.
      8, -0.100000001, -0.0250000004,           0.
      9,  0.100000001, 0.0250000004,           0.
     10,  0.100000001, -0.0250000004,           0.
     11,  0.100000001, 0.0250000004, 0.0299999993
     12,  0.100000001, -0.0250000004, 0.0299999993
     13, -0.0351113603, -0.0250000004, 0.0299999993
     14, -0.0351113603, 0.0250000004, 0.0299999993
     15, 0.0351113603, -0.0250000004, 0.0299999993
     16, 0.0351113603, 0.0250000004, 0.0299999993
     17, -0.0302048847, 0.0257071219, 0.0340374559
     18, -0.0302048847, -0.0221661311, 0.0340374559
     19, 0.0302048847, -0.0221661311, 0.0340374559
     20, 0.0149999997,      0.01425,  0.230000004
** ... 19409 like lines cut
*Element, type=C3D10
    1,  1461,  1462,  1463,  1464,  2828,  2827,  2826,  2830,  2829,  2831
    2,  1465,  1466,  1467,  1461,  2834,  2833,  2832,  2836,  2835,  2837
    3,  1468,  1465,  1466,  1467,  2839,  2834,  2838,  2840,  2832,  2833
    4,  1461,  1469,  1464,  1465,  2842,  2841,  2830,  2836,  2843,  2844
    5,  1469,  1470,  1471,  1472,  2847,  2846,  2845,  2849,  2848,  2850
    6,  1469,  1471,  1470,  1464,  2845,  2846,  2847,  2841,  2851,  2852
    7,  1461,  1469,  1465,  1473,  2842,  2843,  2836,  2854,  2853,  2855
    8,  1474,  1475,  1476,  1477,  2858,  2857,  2856,  2860,  2859,  2861
    9,  1474,  1476,  1475,  1478,  2856,  2857,  2858,  2863,  2862,  2864
   10,  1474,  1479,  1480,  1481,  2867,  2866,  2865,  2869,  2868,  2870
   11,  1474,  1481,  1476,  1482,  2869,  2871,  2856,  2873,  2872,  2874
   12,  1469,  1472,  1483,  1479,  2849,  2876,  2875,  2878,  2877,  2879
   13,  1461,  1469,  1462,  1464,  2842,  2880,  2828,  2830,  2841,  2829
   14,  1471,  1484,  1485,  1486,  2883,  2882,  2881,  2885,  2884,  2886
   15,  1471,  1487,  1485,  1470,  2888,  2887,  2881,  2846,  2889,  2890
   16,  1471,  1488,  1487,  1489,  2892,  2891,  2888,  2894,  2893,  2895
   17,  1471,  1488,  1490,  1472,  2892,  2897,  2896,  2850,  2898,  2899
   18,  1471,  1472,  1484,  1488,  2850,  2900,  2883,  2892,  2898,  2901
   19,  1491,  1492,  1493,  1494,  2904,  2903,  2902,  2906,  2905,  2907
   20,  1491,  1493,  1492,  1495,  2902,  2903,  2904,  2909,  2908,  2910
** ... 12293 like lines cut
*Nset, nset=Set-1, generate
     1,  19429,      1
*Elset, elset=Set-1, generate
     1,  12313,      1
** Section: Section-1
*Solid Section, elset=Set-1, material=Material-1
,
*End Part
**  
**
** ASSEMBLY
**
*Assembly, name=Assembly
**  
*Instance, name=Draglink-1, part=Draglink
*End Instance
**  
*Node
      1,           0., -0.00499999989,         0.25
*Nset, nset=Set-1, instance=Draglink-1
     1,     4,     7,     8,     9,    10,    31,    32,    33,    34,    35,    36,    37,    38,    39,    58
    59,    60,    61,    62,    63,    64,    65,    66,    76,    77,    78,    79,    80,    81,    85,    86
    87,    88,    89,    90,    91,    92,    93,    94,    95,    96,    97,    98,    99,   100,   101,   102
   103,   104,   105,   106,   107,   108,   109,   110,   111,   112,   113,   114,   115,   116,   117,   118
   119,   120,   121,   122,   123,   124,   125,   126,   127,   128,   129,   130,   131,   132,   133,   134
   135,   136,   137,   138,   139,   140,   471,   472,   473,   474,   475,   476,   477,   478,   479,   480
   481,   482,   483,   484,   485,   486,   487,   488,   489,   490,   491,   492,   493,   494,   495,   496
   497,   498,   499,   500,   501,   502,   503,   504,   505,   506,   507,   508,   509,   510,   511,   512
   513,   514,   515,   516,   517,   518,   519,   520,   521,   522,   523,   524,   525,   526,   527,   528
   529,   530,   531,   532,   533,   534,   535,   536,   537,   538,   539,   540,   541,   542,   543,   544
   545,   546,   547,   548,   549,   550,   551,   552,   553,   554,   555,   556,   557,   558,   559,   560
   561,   562,   563,   564,   565,   566,   567,   568,   569,   570,   571,   572,   573,   574,   575,   576
   577,   578,   579,   580,   581,   582,   583,   584,   585,   586,   587,   588,   589,   590,   591,   592
   593,   594,   595,   596,   597,   598,   599,   600,   601,   602,  2970,  2979,  2984,  2991,  4365,  4859
  5063,  5064,  5065,  5191,  5988,  6539,  6544,  6547,  6549,  6551,  6561,  6562,  6563,  6564,  6575,  6593
  6594,  6596,  6601,  6753,  6813,  6815,  6817,  7238,  7258,  7272,  7301,  7630,  7632,  7634,  7788,  7860
  7862,  7864,  8022,  8023,  8035,  8037,  8039,  8041,  8043,  8045,  8107,  8156,  8158,  8160,  8166,  8183
  8184,  8185,  8192,  8194,  8196,  8206,  8210,  8213,  8233,  8234,  8236,  8243,  8244,  8245,  8246,  8248
  8250,  8265,  8267,  8269,  8358,  8384,  8386,  8388,  8600,  8602,  8604,  8634,  8636,  8638,  8645,  8647
  8649,  8833,  8891,  8893,  8895,  8911,  8914,  8916,  8918,  8928,  8930,  8931,  8952,  8954,  8956,  8989
** ... 30 like lines cut
*Elset, elset=Set-1, instance=Draglink-1
   622,  1088,  1091,  1092,  1100,  1102,  1169,  1515,  1610,  1664,  1666,  1691,  1699,  1701,  1715,  1717
  1718,  1723,  1749,  1806,  1814,  1816,  1871,  1895,  1899,  1905,  1914,  1923,  1958,  1991,  2003,  2004
  2012,  2050,  2062,  2114,  2121,  2122,  2124,  2147,  2149,  2237,  2283,  2306,  2314,  2391,  2550,  2585
  2595,  2596,  2624,  2627,  2644,  2668,  2669,  2701,  2703,  2722,  2726,  2727,  2730,  2737,  2739,  2742
  2745,  2746,  2752,  2756,  2763,  2768,  2785,  2816,  2824,  2832,  2840,  2841,  2872,  2878,  2879,  2887
  2888,  2889,  2895,  2901,  2902,  2917,  2959,  2961,  2967,  2983,  2987,  2996,  3002,  3003,  3023,  3032
  3041,  3044,  3050,  3051,  3056,  3062,  3069,  3084,  3092,  3093,  3094,  3098,  3105,  3106,  3114,  3121
  3132,  3133,  3141,  3144,  3145,  3146,  3147,  3172,  3174,  3177,  3214,  3218,  3222,  3266,  3276,  3300
  3305,  3311,  3318,  3319,  3347,  3355,  3359,  3361,  3362,  3364,  3379,  3380,  3387,  3388,  3397,  3400
  3403,  3405,  3407,  3408,  3410,  3423,  3429,  3438,  3444,  3445,  3450,  3461,  3465,  3467,  3480,  3481
  3489,  3496,  3498,  3515,  3516,  3517,  3520,  3528,  3531,  3540,  3548,  3552,  3570,  3573,  3576,  3577
  3580,  3591,  3595,  3607,  3614,  3623,  3633,  3636,  3640,  3645,  3646,  3647,  3650,  3656,  3662,  3665
  3680,  3681,  3683,  3688,  3689,  3690,  3694,  3698,  3702,  3703,  3705,  3720,  3722,  3740,  3756,  3757
  3772,  3779,  3783,  3792,  3824,  3840,  3877,  3941,  3956,  3963,  3964,  3967,  3968,  3988,  4088,  4089
  4092,  4100,  4234,  4252,  4276,  4289,  4290,  4300,  4310,  4312,  4316,  4323,  4324,  4328,  4338,  4340
  4342,  4348,  4352,  4353,  4356,  4366,  4368,  4384,  4385,  4386,  4393,  4438,  4447,  4453,  4505,  4517
  4528,  4585,  4588,  4651,  4655,  4664,  4666,  4667,  4675,  4679,  4686,  4689,  4696,  4697,  4729,  4739
  4790,  4892,  4991,  4994,  4997,  5021,  5073,  5080,  5093,  5094,  5119,  5122,  5123,  5130,  5134,  5143
  5145,  5163,  5214,  5239,  5274,  5287,  5310,  5348,  5365,  5370,  5396,  5399,  5413,  5424,  5490,  5505
  5509,  5521,  5530,  6070,  6101,  6110,  6114,  6348,  6489,  7159,  8149,  8361,  8362,  9143,  9176,  9409
  9412,  9837,  9871,  9970, 10043, 10386, 10407, 10445, 10446, 10447, 10479, 10509, 10522, 10569, 10654, 10655
 10689, 10773, 10774, 10898, 10976, 11476, 11593, 11623, 11647, 11878, 12016, 12018, 12123, 12126, 12155, 12291
*Nset, nset=Set-3
 1,
*Nset, nset=m_Set-2
 1,
*Elset, elset=_s_Surf-1_S3, internal, instance=Draglink-1
   809,  1142,  1837,  2976,  3825,  4065,  4935,  5347,  5390,  6349,  6481,  6506,  6765,  6964,  7595,  7616
  8378,  9006,  9039,  9040,  9600,  9703,  9719,  9742,  9852,  9892,  9999, 10002, 10019, 10027, 10087, 10128
 10176, 10177, 10191, 10203, 10217, 10221, 10253, 10254, 10258, 10274, 10295, 10296, 10299, 10300, 10310, 10322
 10343, 10344, 10391, 10399, 10405, 10406, 10459, 10466, 11239, 11317, 11555, 11928
*Elset, elset=_s_Surf-1_S1, internal, instance=Draglink-1
  4012,  4573,  5385,  5976,  9596,  9792,  9798, 10473
*Elset, elset=_s_Surf-1_S2, internal, instance=Draglink-1
  4266,  8211,  9793, 10375
*Elset, elset=_s_Surf-1_S4, internal, instance=Draglink-1
  6215,  6968,  9627,  9873, 10222, 10229, 10421, 11989
*Surface, type=ELEMENT, name=s_Surf-1
_s_Surf-1_S3, S3
_s_Surf-1_S1, S1
_s_Surf-1_S2, S2
_s_Surf-1_S4, S4
** Constraint: Constraint-1
*Coupling, constraint name=Constraint-1, ref node=m_Set-2, surface=s_Surf-1
*Kinematic
*End Assembly
** 
** MATERIALS
** 
*Material, name=Material-1
*Elastic
 2.1e+11, 0.3
** 
** BOUNDARY CONDITIONS
** 
** Name: BC-1 Type: Symmetry/Antisymmetry/Encastre
*Boundary
Set-1, ENCASTRE
** ----------------------------------------------------------------
** 
** STEP: Step-1
** 
*Step, name=Step-1, nlgeom=NO
*Static
1., 1., 1e-05, 1.
** 
** LOADS
** 
** Name: Load-1   Type: Concentrated force
*Cload
Set-3, 1, 20000.
** 
** OUTPUT REQUESTS
** 
*Restart, write, frequency=0
** 
** FIELD OUTPUT: F-Output-1
** 
*Output, field
*Node Output
U, 
*Element Output, directions=YES
EVOL, S
** 
** HISTORY OUTPUT: H-Output-1
** 
*Output, history, variable=PRESELECT
*End Step
